/*--------------------------------*- C++ -*----------------------------------*\
| =========                 |                                                 |
| \\      /  F ield         | OpenFOAM: The Open Source CFD Toolbox           |
|  \\    /   O peration     | Version:  2412                                  |
|   \\  /    A nd           | Website:  www.openfoam.com                      |
|    \\/     M anipulation  |                                                 |
\*---------------------------------------------------------------------------*/
FoamFile
{
    version     2.0;
    format      ascii;
    arch        "LSB;label=32;scalar=64";
    class       featureEdgeMesh;
    location    "constant/triSurface";
    object      motorBike.eMesh;
}
// * * * * * * * * * * * * * * * * * * * * * * * * * * * * * * * * * * * * * //


// points:

20665
(
(0.128527 -0.170548 0.9533)
(0.369688 -0.264571 0.674498)
(0.375203 0.250516 0.684358)
(0.374821 -0.261572 0.67873)
(0.735776 0.236118 0.582324)
(0.357966 -0.148896 0.403582)
(0.537749 -0.228935 0.545987)
(1.10912 -0.0606958 0.150788)
(0.358185 0.143939 0.4068)
(0.383695 -0.123149 0.358276)
(0.383663 0.119795 0.360814)
(1.10921 0.0601959 0.152116)
(0.305992 -0.191258 0.800629)
(0.376503 0.155983 0.795889)
(0.402403 -0.0683654 0.365104)
(1.44839 0.0968723 0.301687)
(1.44414 0.0970284 0.294642)
(1.44461 0.0967183 0.31719)
(1.42201 0.0970263 0.317607)
(1.42158 0.0973331 0.295011)
(1.44713 -0.155758 0.298982)
(1.44418 0.149139 0.295207)
(1.42079 -0.156409 0.314844)
(1.44329 -0.156542 0.314429)
(1.43624 -0.156727 0.318677)
(1.44288 -0.155437 0.291939)
(1.42037 -0.155641 0.292346)
(1.44857 0.116789 0.31011)
(1.41718 -0.127219 0.308049)
(1.44459 0.116388 0.317342)
(1.43695 0.119389 0.290909)
(1.43753 0.116566 0.321605)
(1.42203 0.117929 0.317856)
(1.42165 0.119263 0.295301)
(1.37609 -0.129208 0.946663)
(1.37627 0.110802 0.949301)
(-0.0490575 -0.0969617 0.731506)
(-0.00763912 -0.0961835 0.730175)
(-0.00745934 0.0846189 0.732136)
(-0.00366845 0.0803133 0.7353)
(0.0353189 -0.0895217 0.731261)
(0.0354435 0.0778582 0.733101)
(0.0298048 0.0813477 0.733217)
(0.0296737 -0.0929832 0.731309)
(0.964174 -0.130378 0.721721)
(0.966158 -0.12067 0.706359)
(0.781554 -0.186107 0.740233)
(0.966328 0.108159 0.708874)
(0.858717 -0.14808 0.777179)
(0.918742 -0.123691 0.786443)
(0.922291 -0.125776 0.772534)
(0.916406 -0.130804 0.764359)
(0.9095 -0.129796 0.773428)
(0.930647 0.112687 0.764759)
(0.867024 0.127336 0.783734)
(0.919588 0.109815 0.788171)
(0.824137 0.159377 0.730521)
(0.917571 0.110958 0.78151)
(0.912331 0.112921 0.779145)
(0.979949 0.0965004 0.782026)
(1.56666 -0.122769 0.911244)
(1.40766 -0.122687 0.842036)
(1.56671 0.104912 0.913492)
(1.00911 -0.0988493 0.71623)
(1.00925 0.0860624 0.718262)
(0.715566 -0.216267 0.763277)
(0.71949 -0.213976 0.753067)
(0.686033 0.212588 0.780513)
(0.718239 -0.215168 0.773985)
(0.727799 -0.209664 0.746914)
(0.735294 -0.0729218 0.998621)
(0.721159 0.0575765 0.999312)
(0.485345 -0.148638 0.508322)
(0.480613 -0.143082 0.513359)
(0.491691 -0.149588 0.502193)
(0.776383 0.0648483 0.181539)
(0.491657 0.123803 0.505452)
(0.827388 -0.0285784 0.184878)
(0.777924 0.0552136 0.180901)
(0.500276 -0.121571 0.493928)
(0.829629 -0.0293802 0.201945)
(0.743384 -0.0277094 0.190563)
(0.479277 -0.0688511 0.516601)
(0.729952 0.00479982 0.177471)
(0.483128 -0.0761569 0.51266)
(0.489119 -0.0795219 0.506623)
(0.790314 -0.0195109 0.18999)
(0.766691 0.0400467 0.19618)
(0.785157 0.00852024 0.190264)
(0.488406 0.0893636 0.508566)
(0.791062 -0.0217255 0.206999)
(0.77979 0.0420524 0.194168)
(0.494658 0.0901329 0.502317)
(0.788881 -0.0159379 0.214531)
(0.50275 -0.0550774 0.493265)
(0.492908 -0.0444061 0.503242)
(0.779757 0.0417172 0.199825)
(0.479874 0.00936355 0.517593)
(0.483966 0.0022166 0.513515)
(0.492626 0.0346265 0.504745)
(0.498899 -0.0477718 0.497205)
(0.490072 -0.00091761 0.507408)
(0.498732 0.0314923 0.498637)
(0.502824 0.0243454 0.494559)
(0.784582 0.010621 0.206002)
(1.37444 0.00505008 0.372924)
(1.37414 -0.0104381 0.372526)
(1.34195 -0.00863244 0.474202)
(1.40514 0.0122633 0.496991)
(1.60891 0.00319659 0.227706)
(1.61305 0.0150047 0.233463)
(-0.0292989 -0.0807623 0.350819)
(0.113789 -0.074955 0.447615)
(0.113541 0.0708629 0.446168)
(-0.0542879 -0.0596118 0.425312)
(-0.0547967 -0.0596648 0.420647)
(-0.0519538 -0.0605623 0.345634)
(-0.0611863 -0.0607248 0.328833)
(-0.0761446 -0.0606097 0.333629)
(-0.0782261 -0.0612357 0.279951)
(-0.0670563 -0.0616011 0.25269)
(-0.0834317 -0.0613357 0.269764)
(-0.080083 -0.0610481 0.29521)
(-0.111432 0.0606803 0.363956)
(-0.0610875 -0.0597592 0.410597)
(-0.11267 -0.060325 0.345659)
(-0.0850058 -0.0605769 0.333478)
(-0.0867473 -0.0622025 0.195306)
(-0.0821497 -0.0622088 0.196252)
(-0.0876944 -0.0621439 0.199915)
(-0.0517824 -0.0616799 0.251086)
(-0.0503817 -0.0620982 0.216148)
(-0.0381716 -0.0620799 0.22169)
(-0.0478357 -0.0620074 0.224672)
(-0.0918137 -0.0612799 0.271726)
(-0.0539796 0.0598471 0.425346)
(-0.0608719 0.0610508 0.328868)
(-0.0654269 0.0602942 0.390444)
(-0.0648964 0.060232 0.395376)
(-0.0876569 0.0609025 0.343598)
(-0.0516402 0.060831 0.345668)
(-0.0767005 0.0610171 0.333196)
(-0.0638908 0.0606793 0.359203)
(0.14144 -0.0626206 0.235295)
(-0.044369 -0.0601678 0.381511)
(-0.0353156 -0.0602289 0.379327)
(-0.0294337 -0.0604038 0.366489)
(-0.110206 -0.0603859 0.341308)
(-0.116346 -0.0612908 0.262692)
(-0.0752016 -0.0617839 0.234552)
(-0.0196973 -0.0623239 0.20714)
(-0.0231196 -0.0623994 0.199656)
(0.00707887 -0.0622928 0.21865)
(-0.0178513 -0.0625045 0.192493)
(-0.0500935 -0.0623471 0.195134)
(-0.0107143 -0.0629223 0.159449)
(-0.00724876 -0.0629738 0.156274)
(-0.0510994 -0.0622862 0.199995)
(-0.0986417 -0.0614861 0.251983)
(-0.0607783 0.060038 0.410631)
(-0.0544882 0.059906 0.420681)
(-0.112358 0.0609072 0.345694)
(-0.109109 0.0607275 0.359877)
(-0.0752912 0.0611349 0.323583)
(-0.0848188 0.0614092 0.302392)
(-0.0855935 0.0610095 0.33471)
(0.13737 -0.0626316 0.232973)
(-0.0561109 -0.0597845 0.410069)
(-0.0652063 -0.0599233 0.395342)
(-0.0657373 -0.0599793 0.390409)
(-0.045011 -0.0600602 0.39041)
(-0.0608044 -0.060005 0.389886)
(-0.0213479 -0.0602202 0.384686)
(0.0799148 -0.0631335 0.171551)
(-0.108347 -0.060312 0.34816)
(-0.105863 -0.0603734 0.343813)
(-0.122011 -0.0611106 0.276076)
(-0.111799 -0.0613325 0.260615)
(-0.103149 -0.0614445 0.254041)
(-0.114304 -0.0612444 0.26726)
(-0.109756 -0.0612871 0.265183)
(-0.0830983 -0.0621511 0.200862)
(-0.00409095 -0.0629446 0.15975)
(0.00806773 -0.0624917 0.202099)
(0.0164035 -0.0624714 0.206576)
(-0.060939 -0.0620537 0.216387)
(-0.00755741 -0.062894 0.162926)
(-0.0717065 -0.0622258 0.19827)
(-0.0668088 -0.0622335 0.199267)
(-0.0966168 -0.0614408 0.256511)
(0.0548711 -0.0623379 0.230616)
(-0.0493183 0.0598479 0.424852)
(-0.108034 0.0608711 0.348195)
(-0.0906932 0.0614073 0.303115)
(-0.0953599 0.0614643 0.299017)
(-0.0440246 0.0603775 0.381515)
(-0.0447821 0.0602725 0.390066)
(-0.0999983 0.0610972 0.329089)
(-0.0788992 0.0617331 0.275607)
(-0.0667371 0.0620015 0.252726)
(-0.0720933 0.0621308 0.242802)
(0.0870834 -0.0620173 0.268402)
(0.101375 -0.0621322 0.263408)
(0.0693916 -0.0624454 0.22629)
(0.0809515 -0.062362 0.237168)
(0.092399 -0.0624401 0.234368)
(0.0776505 -0.0621748 0.25196)
(0.0893083 -0.0623359 0.242172)
(-0.0602732 -0.0599485 0.394818)
(0.0752528 -0.0631087 0.172076)
(0.0501763 -0.0627443 0.194639)
(0.0703558 -0.0626927 0.205713)
(0.0100514 -0.0625882 0.194627)
(-0.0558016 0.0600387 0.410103)
(-0.0864252 0.0627366 0.195342)
(-0.0636741 0.0621175 0.243021)
(-0.125968 0.0617626 0.278051)
(-0.127892 0.0618177 0.27376)
(-0.104302 0.0611337 0.326605)
(-0.0327264 0.0603855 0.379716)
(0.110441 -0.0621611 0.263952)
(0.101503 -0.0620109 0.273677)
(0.104285 -0.0618474 0.288451)
(0.100976 -0.062473 0.234424)
(0.1284 -0.0622359 0.26352)
(0.0804248 -0.0630799 0.176221)
(0.0822735 -0.0629035 0.191794)
(0.0908168 -0.0628221 0.201517)
(0.091366 -0.0627656 0.206446)
(-0.101123 -0.0613985 0.25857)
(0.0188234 -0.0627824 0.181086)
(-0.0498279 0.0599058 0.420187)
(-0.0200794 0.0600915 0.402199)
(-0.123618 0.0618366 0.271819)
(-0.0291214 0.0605444 0.366524)
(-0.113986 0.0618808 0.267295)
(-0.121694 0.0617807 0.276111)
(0.0928848 -0.0616816 0.298742)
(0.0757621 -0.0630559 0.176747)
(0.0102366 -0.0629047 0.167863)
(0.0224828 -0.0628359 0.177741)
(-0.0983221 0.0620499 0.252018)
(-0.10283 0.0620299 0.254077)
(-0.116028 0.0619394 0.262727)
(-0.00692376 0.06312 0.156311)
(0.00839049 0.0625334 0.202135)
(0.0551928 0.062121 0.230651)
(0.0382823 0.0622422 0.222577)
(-0.0118207 0.060422 0.374643)
(0.0779706 0.0618279 0.251996)
(0.0896294 0.0619344 0.242207)
(0.0874023 0.0616123 0.268438)
(0.101695 0.0616562 0.263444)
(0.141762 0.0619539 0.23533)
(0.125936 -0.0621757 0.267828)
(0.115826 -0.0618299 0.293761)
(-0.0962981 0.0619911 0.256547)
(-0.100805 0.0619715 0.258605)
(-0.010389 0.0630855 0.159486)
(-0.00723241 0.0630379 0.162962)
(-0.071384 0.0626814 0.198306)
(-0.0188281 0.0602878 0.386193)
(0.0812726 0.0620075 0.237204)
(0.0697136 0.0621567 0.226325)
(0.0927203 0.0620272 0.234403)
(0.101822 0.0615293 0.273712)
(0.137692 0.0619882 0.233008)
(0.139437 0.0619068 0.239409)
(-0.0133091 0.060156 0.396274)
(-0.00376598 0.0630733 0.159786)
(0.0103746 0.0626231 0.194663)
(-0.0556317 0.0626526 0.199041)
(-0.0507767 0.0626337 0.20003)
(-0.0664863 0.0626625 0.199303)
(0.0417457 0.0624235 0.207592)
(0.0802398 0.062821 0.171587)
(0.104604 0.061343 0.288486)
(0.00647036 -0.0598789 0.422789)
(0.00913986 -0.0602695 0.390587)
(0.00349977 0.0629676 0.167578)
(0.0191479 0.0627797 0.181122)
(0.0158071 0.0628298 0.177459)
(0.0194653 0.0628662 0.174115)
(0.0228074 0.0628172 0.177777)
(0.0406068 0.0625355 0.198661)
(0.0807496 0.0627629 0.176257)
(0.126255 0.0615705 0.267864)
(0.00719043 0.0630044 0.164204)
(0.0908473 0.0609964 0.317825)
(0.0932021 0.0612294 0.298777)
(0.12872 0.0616213 0.263556)
(0.0911403 0.0624361 0.201553)
(0.0862232 0.0624359 0.202101)
(0.0825972 0.0625671 0.19183)
(0.135366 0.0619402 0.237087)
(0.0990789 -0.0613298 0.330547)
(0.0153923 -0.0598402 0.42899)
(0.0187457 -0.0598097 0.432697)
(0.0101441 -0.0599323 0.419461)
(0.00345482 0.0598519 0.419149)
(0.00677942 0.0598019 0.422823)
(0.0820621 0.06263 0.186848)
(0.106248 0.0608988 0.324137)
(0.0993942 0.060828 0.330582)
(0.0190885 -0.0598943 0.425649)
(0.0190541 0.0596637 0.432731)
(0.112365 -0.0605429 0.401564)
(0.0224519 -0.0598635 0.42934)
(0.0373824 -0.0605671 0.374749)
(0.0331895 -0.059851 0.433974)
(0.0363402 -0.059822 0.437445)
(0.00712841 0.0598881 0.41582)
(0.0104531 0.0598388 0.419495)
(0.0829574 -0.0606575 0.382143)
(0.0963141 -0.0604573 0.403506)
(0.0300272 0.0595953 0.437151)
(0.107778 -0.0605358 0.400616)
(0.080568 -0.0604052 0.402712)
(0.0815809 -0.0604661 0.397878)
(0.0745443 -0.0606494 0.380055)
(0.0973333 -0.0605187 0.398611)
(0.0930276 0.0606655 0.344342)
(0.0777532 0.0606646 0.345947)
(0.0757222 -0.0603977 0.401721)
(0.0767317 -0.0604593 0.396868)
(0.0638353 -0.0606641 0.375223)
(0.073674 -0.0607457 0.371612)
(0.0506769 -0.0605281 0.382426)
(0.0467311 -0.0604119 0.390967)
(0.113632 0.0599873 0.397014)
(0.0334983 0.0596297 0.434008)
(0.0469647 0.0600102 0.401944)
(0.0470424 0.0601459 0.391001)
(0.0994666 0.0605156 0.355767)
(0.0832689 0.060209 0.382177)
(0.100093 0.060385 0.366285)
(0.0493726 0.0600761 0.396342)
(0.109044 0.0600045 0.396066)
(0.0748562 0.0602454 0.380089)
(0.0818914 0.0600164 0.397912)
(0.077043 0.0600344 0.396903)
(0.0808783 0.0599572 0.402746)
(0.0760329 0.059976 0.401755)
(0.126651 -0.0972883 0.375369)
(0.156485 0.0976627 0.31084)
(0.151724 0.0978491 0.306465)
(0.154932 -0.100104 0.310874)
(0.143567 -0.0992176 0.362249)
(0.150166 -0.100097 0.3065)
(0.143859 -0.100026 0.305098)
(0.14542 0.0980787 0.305061)
(0.134888 0.0984261 0.311771)
(0.157014 0.0975938 0.323305)
(0.13303 -0.0989712 0.368951)
(0.143031 -0.0993855 0.349785)
(0.133324 -0.0997795 0.311809)
(0.135422 0.0983577 0.324227)
(0.144569 0.097931 0.349754)
(0.133504 0.0983467 0.343974)
(0.139808 0.0981171 0.345378)
(0.146476 0.0979414 0.330006)
(0.155468 -0.0999369 0.323337)
(0.138265 -0.099378 0.345411)
(0.144928 -0.0996903 0.33004)
(0.133865 -0.099612 0.324263)
(0.145098 0.0978619 0.362218)
(0.122972 0.0986943 0.350684)
(0.123506 0.0986257 0.36314)
(0.121422 -0.0990602 0.35072)
(0.131957 -0.0993067 0.344009)
(0.121964 -0.0988926 0.363175)
(0.128108 0.0969121 0.375351)
(0.13456 0.0982096 0.368919)
(0.155767 -0.0504619 0.310202)
(0.151002 -0.0504272 0.305827)
(0.144694 -0.0503243 0.304425)
(0.156303 -0.0503101 0.322665)
(0.13416 -0.050035 0.311136)
(0.155369 0.0479829 0.323133)
(0.154839 0.0480358 0.310669)
(0.145764 -0.0500207 0.329368)
(0.143866 -0.0497278 0.349114)
(0.134702 -0.0498837 0.323591)
(0.142923 0.0482889 0.349582)
(0.14483 0.0482878 0.329835)
(0.150078 0.0481948 0.306293)
(0.144401 -0.0495758 0.361577)
(0.143453 0.0482361 0.362046)
(0.143773 0.048393 0.30489)
(0.139101 -0.049693 0.344739)
(0.133863 -0.0492865 0.368279)
(0.122801 -0.0491494 0.362502)
(0.132913 0.048541 0.368748)
(0.138161 0.048448 0.345206)
(0.133773 0.0486451 0.324055)
(0.133239 0.0486976 0.311599)
(0.132793 -0.0495901 0.343336)
(0.122259 -0.0493007 0.350047)
(0.131856 0.0486461 0.343803)
(0.121857 0.0488983 0.362969)
(0.121322 0.0489508 0.350512)
(0.348974 -0.321704 0.822465)
(0.353798 -0.322853 0.82744)
(0.360271 -0.32172 0.830047)
(0.318682 -0.213725 0.906417)
(0.305051 -0.213944 0.896277)
(0.380193 0.295144 0.851006)
(0.328371 -0.210976 0.907344)
(0.347111 -0.31677 0.813612)
(0.385095 0.295112 0.856189)
(0.391432 0.29294 0.858568)
(0.377717 0.291254 0.841792)
(0.339526 -0.231209 0.883461)
(0.372438 -0.314423 0.826231)
(0.327411 0.181657 0.924372)
(0.299987 -0.171675 0.92657)
(0.325661 -0.244685 0.868157)
(0.352834 -0.310338 0.80711)
(0.37394 -0.31019 0.82016)
(0.313612 0.184501 0.914467)
(0.336569 0.178053 0.924774)
(0.349706 0.199927 0.905815)
(0.344859 0.222127 0.895087)
(0.383168 0.285848 0.834234)
(0.342377 -0.198169 0.899826)
(0.289453 -0.167053 0.913043)
(0.359267 -0.307334 0.806423)
(0.402867 0.285129 0.853703)
(0.395721 0.280329 0.835308)
(0.292296 -0.176512 0.900322)
(0.317644 -0.226797 0.86492)
(0.347523 0.169114 0.918087)
(0.403986 0.281692 0.847011)
(0.343477 -0.19277 0.890149)
(0.290405 -0.161788 0.90557)
(0.303043 -0.214891 0.869155)
(0.343078 -0.191487 0.884864)
(0.350371 0.16397 0.910776)
(0.322919 -0.156556 0.91748)
(0.346024 -0.22039 0.871016)
(0.311848 0.189909 0.887855)
(0.335954 -0.229777 0.852162)
(0.298017 0.147986 0.912575)
(0.334201 -0.186156 0.87473)
(0.303539 -0.152027 0.898677)
(0.336858 -0.223208 0.857205)
(0.294977 0.132802 0.91542)
(0.326925 0.123276 0.926145)
(0.319229 -0.151149 0.906945)
(0.355591 0.207208 0.874032)
(0.318739 -0.150089 0.907609)
(0.340223 0.190094 0.876464)
(0.326432 -0.187232 0.869795)
(0.305554 -0.137203 0.909536)
(0.307371 0.123291 0.906979)
(0.344634 0.00267287 0.927693)
(0.322898 0.119915 0.914906)
(0.3085 -0.193779 0.870525)
(0.316757 -0.190898 0.8674)
(0.345375 -0.0417144 0.928367)
(0.326247 0.162383 0.883029)
(0.308184 0.106816 0.915323)
(0.322324 0.118802 0.915394)
(0.315671 0.168494 0.88581)
(0.322173 0.166088 0.882668)
(0.303181 -0.188724 0.870302)
(0.363057 -0.00752926 0.91826)
(0.309985 0.16396 0.884817)
(0.300535 0.0938317 0.852386)
(0.260267 -0.109415 0.845937)
(0.260494 -0.11855 0.845969)
(0.262924 0.107783 0.841013)
(0.258534 0.0907354 0.843566)
(0.264158 -0.101407 0.84379)
(0.291334 -0.113243 0.829902)
(0.270351 0.0666674 0.820745)
(0.28961 0.0942272 0.827407)
(0.785132 -0.128751 0.374211)
(0.119687 -0.0648678 0.938939)
(1.37642 -0.168119 0.324849)
(1.0146 -0.17274 0.372294)
(1.01426 -0.172608 0.378669)
(1.38058 0.133888 0.297633)
(1.01926 0.167109 0.391533)
(0.684639 0.210536 0.722401)
(0.402245 0.0613906 0.873903)
(0.817163 -0.158672 0.658946)
(0.729843 0.197359 0.696425)
(0.350542 -0.0318368 0.891785)
(0.733339 0.19426 0.700636)
(0.350188 -0.00763033 0.892015)
(0.73048 0.192514 0.705835)
(0.545509 0.052896 0.261875)
(0.540962 0.0513501 0.285647)
(0.54667 0.0455101 0.257089)
(0.540459 0.0433998 0.289562)
(0.546545 0.0287036 0.260502)
(0.541999 0.027161 0.284274)
(0.607513 0.0583564 0.319939)
(0.545294 0.0237866 0.267786)
(0.603787 0.0474555 0.322464)
(0.607431 0.0262487 0.319875)
(0.604117 0.0346122 0.322163)
(0.612347 -0.190275 0.493854)
(0.499873 -0.173202 0.632068)
(0.510275 -0.173328 0.637411)
(0.506099 -0.163289 0.633074)
(0.612618 0.182945 0.497958)
(0.500148 0.163009 0.635758)
(0.510517 0.162999 0.641088)
(0.500339 -0.153627 0.632435)
(0.506354 0.153055 0.636561)
(0.510622 -0.153588 0.638568)
(0.500574 0.14345 0.635697)
(0.508387 -0.144178 0.635107)
(0.510818 0.143294 0.641757)
(0.508519 0.134012 0.638091)
(0.499701 -0.123266 0.63328)
(0.50895 -0.113831 0.636265)
(0.501578 -0.104344 0.633417)
(0.510997 -0.103782 0.640287)
(0.499668 0.113179 0.63593)
(0.508161 -0.0947254 0.635846)
(0.508779 0.103697 0.638297)
(0.510256 -0.0849269 0.638661)
(0.502725 -0.0751086 0.63406)
(0.500445 0.0941154 0.635774)
(0.510741 0.093469 0.641285)
(0.508163 -0.065169 0.636421)
(0.502165 -0.0554964 0.634502)
(0.511199 -0.0552568 0.641448)
(0.502553 0.0646794 0.635592)
(0.503954 0.0842899 0.635717)
(0.507305 -0.045318 0.636183)
(0.501899 -0.0357967 0.634964)
(0.509793 0.0741532 0.639453)
(0.508289 0.0549171 0.637771)
(0.502242 0.0453134 0.635609)
(0.511539 0.0645861 0.643894)
(0.511274 0.0448962 0.642548)
(0.501266 -0.0152318 0.635502)
(0.507144 -0.0253849 0.636487)
(0.511005 -0.0353676 0.641057)
(0.606937 0.0583587 0.322786)
(0.501622 0.0250202 0.635666)
(0.501151 0.0050059 0.635743)
(0.507364 0.03505 0.637066)
(0.507198 0.0148903 0.636946)
(0.511116 0.0247915 0.641906)
(0.506892 -0.00514048 0.636755)
(0.51093 -0.0154134 0.641118)
(0.510977 0.00482512 0.641419)
(0.606835 0.0262175 0.322819)
(1.07686 0.0944216 0.633543)
(1.00981 0.123886 0.660628)
(1.02465 -0.219229 0.388079)
(1.02094 0.19736 0.391533)
(1.02349 0.200557 0.393834)
(1.39219 0.138536 0.219639)
(1.40062 0.1386 0.219676)
(1.41219 0.13893 0.208195)
(1.39232 0.139198 0.188172)
(1.38075 0.138868 0.199654)
(1.3849 0.138569 0.215385)
(1.40805 0.139228 0.192464)
(1.44079 0.118143 0.214357)
(1.3689 0.117926 0.240036)
(1.42667 0.118397 0.212677)
(1.37877 0.118216 0.229786)
(0.365758 0.285115 0.875094)
(0.372435 -0.310992 0.842401)
(0.375209 0.222363 0.892999)
(0.37834 0.230163 0.888748)
(0.354555 -0.262989 0.86895)
(0.368377 -0.298616 0.847293)
(0.427048 0.245134 0.877819)
(0.412985 0.261961 0.871259)
(0.716792 -0.269258 0.82328)
(0.720241 -0.264707 0.826443)
(0.707394 -0.269769 0.814061)
(0.704927 -0.264637 0.811424)
(0.717732 -0.259677 0.824047)
(0.708279 -0.260088 0.814814)
(0.831335 -0.187388 0.721997)
(0.849993 -0.187706 0.728334)
(0.840318 0.170906 0.724088)
(0.325642 0.196303 1.02968)
(0.00222459 -0.121452 0.300923)
(0.00665914 -0.121106 0.307752)
(0.00374491 -0.12421 0.293263)
(0.0104795 -0.124821 0.288636)
(0.0184461 -0.123314 0.290109)
(0.0146719 -0.121934 0.309445)
(0.0215416 -0.121816 0.3049)
(0.023055 -0.122037 0.296801)
(0.00428691 0.124467 0.292229)
(0.00286563 0.121857 0.300023)
(0.0110479 0.124896 0.287491)
(0.019061 0.123267 0.288971)
(0.0222244 0.121822 0.303645)
(0.0236422 0.121933 0.295597)
(0.00257995 0.0692148 0.297164)
(0.0131059 0.0704568 0.287493)
(0.022414 0.0689183 0.292903)
(1.44499 -0.191072 0.310784)
(1.43547 -0.191044 0.318382)
(1.42337 -0.190889 0.317026)
(1.44635 -0.190956 0.29868)
(1.41577 -0.190697 0.307504)
(1.43875 -0.190764 0.289157)
(1.42664 -0.190609 0.287802)
(1.41713 -0.190581 0.295399)
(1.44461 0.155232 0.31778)
(1.44844 0.155433 0.302324)
(1.43756 0.155228 0.322025)
(1.42168 0.155565 0.295689)
(1.41786 0.155364 0.311145)
(1.42211 0.155308 0.31819)
(1.42873 0.155569 0.291444)
(1.61763 0.0959265 0.999445)
(1.62944 0.0999661 0.996447)
(1.57083 0.100078 0.994616)
(1.33631 0.107233 0.96524)
(1.40154 0.113587 0.967283)
(1.57066 -0.119773 0.992199)
(1.56309 -0.124561 0.986954)
(1.61747 -0.115798 0.997118)
(1.63202 0.0942137 1.00072)
(1.38421 0.114908 0.963938)
(1.39337 0.115678 0.960377)
(1.33614 -0.125931 0.962677)
(1.40135 -0.132421 0.964586)
(1.39319 -0.134333 0.957551)
(1.38402 -0.133644 0.961212)
(1.62928 -0.119788 0.994031)
(1.56326 0.104991 0.989478)
(1.64175 0.113878 0.986097)
(1.64157 -0.133487 0.983379)
(1.63187 -0.114138 0.998427)
(1.33925 -0.121008 0.931127)
(1.33942 0.103001 0.933589)
(0.0726009 -0.246445 0.887737)
(0.0728352 0.231254 0.893065)
(-0.0559896 0.0864773 0.724364)
(-0.0560801 -0.0978161 0.722308)
(-0.0749482 -0.0602901 0.75669)
(-0.0730377 -0.0641957 0.752017)
(-0.0544109 0.0832326 0.736254)
(-0.072981 0.0522195 0.753316)
(-0.0748954 0.0482126 0.7579)
(-0.0544985 -0.0948388 0.734268)
(0.824579 -0.167435 0.669432)
(0.962585 -0.137047 0.717968)
(0.964985 0.122687 0.712895)
(0.82482 0.155935 0.672986)
(1.73454 0.0849646 1.00669)
(1.7344 -0.105172 1.0046)
(1.67727 -0.137075 0.976854)
(1.67746 0.117554 0.979653)
(1.68695 0.113086 0.977142)
(1.68677 -0.132566 0.974442)
(1.69826 -0.126524 0.987757)
(1.69383 -0.12954 0.977155)
(1.69843 0.106735 0.990321)
(1.69401 0.10999 0.979787)
(1.18715 -0.202084 0.782381)
(1.17852 -0.199605 0.773721)
(1.54686 -0.133342 0.866399)
(1.54019 -0.126974 0.869771)
(1.17881 0.185277 0.777968)
(1.18744 0.187545 0.786687)
(1.61357 -0.118295 0.907866)
(1.54705 0.116445 0.869144)
(1.13027 -0.172622 0.624557)
(1.54037 0.110014 0.872376)
(1.12469 -0.129271 0.62484)
(1.12239 -0.138117 0.615854)
(1.12312 -0.163405 0.623077)
(1.13052 0.161651 0.628231)
(1.12336 0.152481 0.626549)
(1.12259 0.127336 0.618795)
(1.00991 -0.140184 0.692667)
(1.12489 0.118351 0.627535)
(1.01011 0.127904 0.695614)
(0.995381 -0.117448 0.684533)
(0.995547 0.105373 0.686982)
(0.775161 0.072741 0.175891)
(0.887958 0.0684867 0.189632)
(0.876212 0.079838 0.215301)
(0.776952 0.0763496 0.200869)
(0.892175 0.023738 0.195682)
(0.887206 0.0166158 0.211018)
(0.847505 -0.0295306 0.174)
(0.774515 0.0721096 0.225875)
(0.869162 0.0621378 0.239904)
(0.870353 0.0441893 0.243608)
(0.874646 0.0287905 0.238449)
(0.797506 -0.0247263 0.175535)
(0.553965 -0.0410408 0.190063)
(0.790731 -0.0199666 0.177435)
(0.792929 -0.0241868 0.224834)
(0.79153 -0.0227621 0.218921)
(0.465867 0.0836442 0.393838)
(0.729346 -0.00382362 0.193256)
(-0.0282551 0.075365 0.347779)
(0.189873 -0.0005471 0.360937)
(-0.0213542 -0.000135 0.114299)
(-0.129334 0.000313251 0.420547)
(-0.066459 -0.0603052 0.362604)
(-0.128209 -0.0611142 0.273725)
(-0.0115814 -0.0621795 0.222075)
(0.0379608 -0.0623674 0.222542)
(0.13832 -0.0624206 0.251199)
(-0.0500605 0.0624327 0.216184)
(0.135835 -0.062359 0.255545)
(0.003175 -0.0628812 0.167542)
(0.0866981 -0.0629863 0.186259)
(-0.0827763 0.0626632 0.200898)
(0.016726 0.0624672 0.206613)
(0.113897 0.0617628 0.253628)
(0.0713955 0.0623022 0.214363)
(0.0706785 0.0624099 0.205748)
(0.138641 0.0617609 0.251234)
(0.134294 0.0617975 0.248756)
(0.00945057 0.0601978 0.390622)
(0.019907 -0.0601178 0.407007)
(0.0193973 0.0597505 0.425684)
(0.0997795 -0.0609106 0.36625)
(0.0991531 -0.0610328 0.355733)
(0.0509887 0.0602464 0.38246)
(0.0641482 0.0603189 0.375258)
(0.140386 0.10392 0.328614)
(0.138547 -0.105371 0.328707)
(0.12847 0.104188 0.367527)
(0.127675 -0.0434327 0.36679)
(0.139576 -0.044167 0.327878)
(0.126441 0.0429888 0.367316)
(0.138357 0.0427355 0.328403)
(0.287649 0.329368 0.80969)
(0.280432 0.327237 0.805254)
(0.286041 0.328996 0.803246)
(0.285187 0.325156 0.798745)
(0.293203 0.326516 0.802955)
(0.289621 0.318789 0.815813)
(0.293543 0.324075 0.810109)
(0.288926 0.32112 0.799459)
(0.264584 -0.328471 0.776971)
(0.260149 -0.326283 0.772171)
(0.271501 -0.328571 0.777634)
(0.26797 -0.323099 0.777337)
(0.268767 -0.337858 0.769914)
(0.26176 -0.334503 0.765919)
(0.274563 -0.334401 0.763686)
(0.267231 -0.336342 0.763622)
(0.275045 -0.333164 0.771136)
(0.2667 -0.331781 0.759796)
(0.270732 -0.328206 0.761121)
(0.278352 -0.30878 0.793068)
(0.282396 -0.314732 0.784972)
(0.28272 0.319324 0.815186)
(0.278161 0.318272 0.810126)
(0.286183 0.313675 0.800627)
(0.279193 0.31589 0.803931)
(0.262524 -0.237677 0.858499)
(0.275209 -0.327773 0.762881)
(0.27585 -0.323525 0.780147)
(0.285685 0.313719 0.81467)
(0.293556 0.313091 0.817464)
(0.293346 0.320071 0.8011)
(0.271727 -0.272569 0.817364)
(0.268556 -0.320856 0.763477)
(0.261398 -0.32303 0.766429)
(0.294848 0.296327 0.827855)
(0.299384 0.303168 0.820786)
(0.290262 0.297664 0.811171)
(0.285335 0.257319 0.846109)
(0.273248 0.217122 0.881215)
(0.292913 -0.231083 0.872357)
(0.278602 -0.261139 0.830907)
(0.273779 -0.307088 0.776414)
(0.325052 -0.184571 0.924346)
(0.336712 -0.236797 0.880444)
(0.283832 -0.292259 0.783891)
(0.291237 0.243386 0.857616)
(0.29911 0.281111 0.816129)
(0.330016 -0.184743 0.922036)
(0.282098 -0.291288 0.78238)
(0.299369 0.20752 0.891627)
(0.32836 -0.123513 0.970164)
(0.332885 -0.124139 0.968127)
(0.332008 -0.129044 0.967687)
(0.327482 -0.128417 0.969723)
(0.355532 -0.134924 0.934942)
(0.301532 -0.21952 0.864701)
(0.304634 0.204339 0.895282)
(0.295866 0.253129 0.832505)
(0.297316 0.280528 0.814493)
(0.351268 -0.141422 0.93615)
(0.33609 0.149749 0.935111)
(0.331144 0.149594 0.937373)
(0.28263 -0.26708 0.804537)
(0.353922 0.103244 0.94199)
(0.357687 0.0967166 0.939736)
(0.309623 0.196708 0.883451)
(0.349721 -0.133569 0.920839)
(0.346949 -0.13894 0.921637)
(0.29563 -0.212631 0.852987)
(0.362113 0.185096 0.891687)
(0.333583 0.0875025 0.971269)
(0.32901 0.0869064 0.973207)
(0.329509 0.0819421 0.972856)
(0.334081 0.0825381 0.970917)
(0.300741 -0.20963 0.857603)
(0.349517 0.103443 0.927294)
(0.351876 0.0980724 0.925634)
(0.332143 -0.163595 0.891034)
(0.304383 0.190825 0.871579)
(0.309223 0.186746 0.875627)
(0.362747 -0.0388163 0.946998)
(0.348847 -0.0368255 0.953619)
(0.320566 -0.0928916 0.942159)
(0.313599 -0.0869278 0.93922)
(0.336719 0.13371 0.900974)
(0.312193 0.0519879 0.936568)
(0.0556013 -0.113613 0.31989)
(0.14226 -0.101964 0.430653)
(0.150663 -0.10314 0.412752)
(0.0708615 -0.107924 0.318344)
(0.0984407 -0.107055 0.336948)
(0.141276 -0.0968659 0.43145)
(0.0695173 -0.0941548 0.311211)
(0.104973 -0.102981 0.338618)
(0.056187 0.113341 0.319955)
(0.151194 0.102325 0.412811)
(0.098992 0.106552 0.337008)
(0.142786 0.101182 0.430712)
(0.0714182 0.107575 0.318406)
(0.105503 0.102444 0.338677)
(0.141774 0.0960879 0.431505)
(0.0700025 0.0938164 0.311265)
(0.0101241 -0.0833039 0.330688)
(0.0957496 -0.083161 0.334518)
(0.0894121 -0.0769207 0.336524)
(0.0961781 0.0826734 0.334565)
(0.0898081 0.0764653 0.336568)
(0.305159 -0.131454 0.823035)
(0.309115 -0.124901 0.820878)
(0.275762 -0.085178 0.837512)
(0.275225 0.0662499 0.835318)
(0.303192 0.113239 0.820059)
(0.302618 0.111613 0.811929)
(0.30731 0.106616 0.818032)
(0.729648 -0.127606 0.383883)
(0.734798 -0.127884 0.401025)
(0.729959 -0.112612 0.383957)
(0.735372 -0.112925 0.401681)
(0.0993527 -0.0681558 0.974991)
(0.129682 -0.0801899 0.922641)
(1.46669 -0.183979 0.323549)
(1.44925 -0.179481 0.2627)
(1.46874 -0.181876 0.313147)
(1.4633 -0.179732 0.277857)
(1.45968 -0.15889 0.3259)
(1.46173 -0.156786 0.315498)
(1.45629 -0.154643 0.280208)
(1.44304 -0.154374 0.26493)
(1.47014 0.150149 0.329039)
(1.47295 0.144313 0.331651)
(1.46101 0.149719 0.333907)
(1.47228 0.148463 0.318879)
(1.45484 0.144281 0.343608)
(0.906513 -0.165483 0.442752)
(0.88795 -0.162646 0.358406)
(0.88631 -0.162038 0.346103)
(1.46287 0.149583 0.27845)
(1.45649 0.151775 0.270378)
(0.852453 -0.181688 0.533843)
(0.841248 -0.184245 0.5398)
(0.903047 -0.165126 0.424912)
(1.0424 -0.158924 0.363541)
(1.04371 -0.170598 0.363445)
(0.934514 -0.175446 0.560505)
(1.04595 -0.160155 0.384107)
(1.47132 0.113167 0.33202)
(1.4767 0.1117 0.319639)
(0.841517 0.175565 0.543755)
(0.852718 0.173123 0.537743)
(0.903289 0.158883 0.428473)
(0.888189 0.157889 0.361928)
(0.934768 0.166174 0.564259)
(1.12189 -0.150406 0.503436)
(0.906755 0.158843 0.446316)
(0.886549 0.157553 0.349615)
(1.45542 0.115097 0.264937)
(1.46605 0.112968 0.273885)
(1.04263 0.153824 0.366978)
(1.04396 0.165496 0.367139)
(1.04619 0.154598 0.387567)
(1.04762 0.166286 0.387961)
(1.16056 0.0913832 0.527215)
(1.63576 -0.00846505 0.863211)
(0.691394 -0.22619 0.610711)
(0.817908 -0.183704 0.581556)
(0.588268 -0.211673 0.777319)
(0.588575 0.198143 0.781823)
(0.477305 -0.160027 0.838582)
(0.691724 0.216165 0.615573)
(0.477533 0.145327 0.84194)
(0.341878 -0.0635435 0.894924)
(0.341655 0.0473141 0.896206)
(0.102733 -0.226357 0.747039)
(0.102488 0.218182 0.755978)
(0.102924 0.214703 0.752207)
(0.102207 -0.220304 0.749259)
(0.104408 0.212264 0.757077)
(0.0933156 -0.190452 0.738991)
(0.0935862 0.178562 0.743039)
(0.40695 0.206119 0.468753)
(0.406709 0.204162 0.479169)
(0.404676 0.193697 0.480407)
(0.404999 0.196507 0.463769)
(0.403919 0.19072 0.467734)
(0.403784 0.18954 0.474726)
(0.501905 0.186378 0.423853)
(0.476036 0.193184 0.456528)
(0.409353 0.19089 0.466049)
(0.508764 0.187697 0.427012)
(0.563239 0.12953 0.279398)
(0.556783 0.133783 0.279612)
(0.556946 0.140629 0.283581)
(0.409825 0.188145 0.471566)
(0.496891 0.172062 0.43217)
(0.508523 0.169984 0.377803)
(0.56345 0.136916 0.293939)
(0.55627 0.150438 0.304085)
(0.564276 0.130916 0.293142)
(0.547834 0.131159 0.2937)
(0.415886 0.187662 0.475351)
(0.551362 0.12539 0.293013)
(0.550912 0.120968 0.288478)
(0.502838 0.171013 0.436639)
(0.514652 0.17048 0.409442)
(0.568974 0.0918834 0.273812)
(0.551323 0.077788 0.280934)
(0.5686 0.0767731 0.282668)
(0.529357 0.0398241 0.272585)
(0.464415 -0.189401 0.631235)
(0.790725 -0.13722 0.314034)
(0.785184 -0.137375 0.323046)
(0.802015 -0.129818 0.317759)
(0.438945 -0.182481 0.620595)
(0.446108 -0.189142 0.622932)
(0.775392 -0.137444 0.327078)
(0.685543 -0.200446 0.3337)
(0.471061 -0.182933 0.635169)
(0.446378 0.179222 0.626978)
(0.7651 -0.1374 0.324588)
(0.788988 -0.137005 0.301559)
(0.439203 0.172626 0.624492)
(0.758264 -0.13726 0.316513)
(0.758057 -0.137043 0.303922)
(0.593259 -0.200002 0.326226)
(0.593584 0.196385 0.330569)
(0.464684 0.179272 0.635286)
(0.790926 0.133589 0.31701)
(0.785386 0.133554 0.326023)
(0.775596 0.133549 0.330056)
(0.779149 -0.136869 0.293724)
(0.766605 -0.136885 0.294687)
(0.511182 -0.192832 0.623847)
(0.47131 0.172709 0.639076)
(0.78532 0.125482 0.377005)